
**** 05/08/18 16:56:06 ****** PSpice 16.5.0 (April 2011) ****** ID# 0 ********

 ** Profile: "SCHEMATIC1-Trans"  [ D:\My_Work\20171211_Femto_LF Gen\0_GitHub_Data_LF\2_LF_Generator_Main\4_Review_Data\lf_gen-pspicef


 ****     CIRCUIT DESCRIPTION


******************************************************************************




** Creating circuit file "Trans.cir" 
** WARNING: THIS AUTOMATICALLY GENERATED FILE MAY BE OVERWRITTEN BY SUBSEQUENT SIMULATIONS

*Libraries: 
* Profile Libraries :
* Local Libraries :
* From [PSPICE NETLIST] section of C:\Cadence\SPB_16.5\tools\PSpice\PSpice.ini file:
.lib "nom.lib" 

*Analysis directives: 
.TRAN  0 100us 0 
.OPTIONS ITL4= 5
.PROBE V(alias(*)) I(alias(*)) W(alias(*)) D(alias(*)) NOISE(alias(*)) 
.INC "..\SCHEMATIC1.net" 



**** INCLUDING SCHEMATIC1.net ****
* source LF_GEN
X_M3         N17266 N17574 0 IRFP460
X_TX6    N17266 N17866 N17836 0 SCHEMATIC1_TX6 
V_V7         N17606 0  
+PULSE 0V 15V 20usec 0 0 2usec 20usec
X_Q6         0 N17368 N17406 awb2n3906 PARAMS:                                 
+            
R_R24         N18326 N18162  1k TC=0,0 
R_R15         N17606 N17368  1k TC=0,0 
X_TX5    N18246 0 N17568 0 SCHEMATIC1_TX5 
C_C14         N18326 N18162  22n  TC=0,0 
X_Q7         N18278 N18162 N18220 awb2n3904 PARAMS:                            
+                 
R_R22         0 N17866  150k TC=0,0 
R_R23         N17266 N18076  10k TC=0,0 
C_C13         0 N17866  2.2u  TC=0,0 
V_V9         N18326 0  
+PULSE 0V 15V 30usec 0 0 2usec 20usec
R_R17         N17574 N17568  10 TC=0,0 
C_C12         N17866 N17914  2.2u  TC=0,0 
C_C11         0 N17468  47u  TC=0,0 
R_R20         0 N17836  200 TC=0,0 
X_Q8         0 N18162 N18220 awb2n3906 PARAMS:                                 
+            
V_V6         N17468 0 DC 15V  
X_M4         N17914 N18076 N17266 IRFP460
X_TX4    N17436 0 N18546 N17266 SCHEMATIC1_TX4 
C_C9         N17606 N17368  22n  TC=0,0 
V_V8         N18278 0 DC 15V  
V_V10         N17914 0 DC 300V AC 0 
R_R25         N18076 N18546  10 TC=0,0 
C_C16         0 N18278  47u  TC=0,0 
X_Q5         N17468 N17368 N17406 awb2n3904 PARAMS:                            
+                 
R_R16         0 N17574  10k TC=0,0 
R_R21         N17866 N17914  150k TC=0,0 
X_C22         N18220 N18246 awbcapacitor PARAMS: CAP=10U C1=10N C2=2 C3=111
+  ESL=100U RESL=10 ESR=11 RP=12M TC=100 TC1_ESR=10 TC2_ESR=10
D_D18         N17266 N851801 D1N4744A 
D_D19         0 N852271 D1N4744A 
D_D26         N18076 N851801 D1N4740A 
D_D27         N17574 N852271 D1N4740A 
R_R82         N112282 N113484  10 TC=0,0 
X_TX17    N113184 0 N112594 0 SCHEMATIC1_TX17 
V_V27         N112638 0  
+PULSE 0V 15V 20usec 0 0 2usec 20usec
X_M12         N112888 N112282 N112310 IRFP460
D_D30         N112310 N1122701 D1N4744A 
D_D28         N112282 N1122701 D1N4740A 
X_TX16    N112466 0 N113484 N112310 SCHEMATIC1_TX16 
C_C63         0 N113216  47u  TC=0,0 
X_M11         N112310 N112306 0 IRFP460
V_V28         N113216 0 DC 15V  
V_V29         N113264 0  
+PULSE 0V 15V 30usec 0 0 2usec 20usec
C_C60         N112840 N112888  2.2u  TC=0,0 
X_Q21         0 N112398 N112452 awb2n3906 PARAMS:                              
+               
X_Q23         0 N113128 N113178 awb2n3906 PARAMS:                              
+               
X_TX18    N112310 N112840 N112816 0 SCHEMATIC1_TX18 
R_R80         N112310 N112282  10k TC=0,0 
V_V30         N112888 0 DC 300V AC 0 
R_R76         N112306 N112594  10 TC=0,0 
R_R75         0 N112306  10k TC=0,0 
R_R79         0 N112840  150k TC=0,0 
D_D31         0 N1122941 D1N4744A 
C_C58         N112638 N112398  22n  TC=0,0 
X_Q20         N112498 N112398 N112452 awb2n3904 PARAMS:                        
+                     
C_C62         N113264 N113128  22n  TC=0,0 
D_D29         N112306 N1122941 D1N4740A 
X_Q22         N113216 N113128 N113178 awb2n3904 PARAMS:                        
+                     
R_R81         N113264 N113128  1k TC=0,0 
V_V26         N112498 0 DC 15V  
C_C61         0 N112840  2.2u  TC=0,0 
R_R77         0 N112816  200 TC=0,0 
R_R78         N112840 N112888  150k TC=0,0 
R_R74         N112638 N112398  1k TC=0,0 
X_C57         N113178 N113184 awbcapacitor PARAMS: CAP=10U C1=10N C2=2 C3=111
+  ESL=100U RESL=10 ESR=11 RP=12M TC=100 TC1_ESR=10 TC2_ESR=10
C_C59         0 N112498  47u  TC=0,0 
R_R83         N113885 N112888  10 TC=0,0 
C_C65         N112310 N113885  1n  TC=0,0 
C_C66         0 N114015  1n  TC=0,0 
R_R84         N114015 N112840  10 TC=0,0 
X_C67         N17406 N17436 awbcapacitor PARAMS: CAP=10U C1=10N C2=2 C3=111
+  ESL=100U RESL=10 ESR=11 RP=12M TC=100 TC1_ESR=10 TC2_ESR=10
X_C68         N112452 N112466 awbcapacitor PARAMS: CAP=10U C1=10N C2=2 C3=111
+  ESL=100U RESL=10 ESR=11 RP=12M TC=100 TC1_ESR=10 TC2_ESR=10
C_C72         N122633 N122681  2.2u  TC=0,0 
D_D33         N122099 N1220871 D1N4740A 
R_R91         N122103 N122075  10k TC=0,0 
X_Q26         N123009 N122921 N122971 awb2n3904 PARAMS:                        
+                     
D_D34         N122103 N1220631 D1N4744A 
X_TX21    N122103 N122633 N122609 0 SCHEMATIC1_TX21 
R_R93         N122075 N123277  10 TC=0,0 
R_R87         N122099 N122387  10 TC=0,0 
D_D32         N122075 N1220631 D1N4740A 
R_R95         N123513 N122633  10 TC=0,0 
R_R94         N123475 N122681  10 TC=0,0 
X_C69         N122971 N122977 awbcapacitor PARAMS: CAP=10U C1=10N C2=2 C3=111
+  ESL=100U RESL=10 ESR=11 RP=12M TC=100 TC1_ESR=10 TC2_ESR=10
X_M14         N122681 N122075 N122103 IRFP460
C_C70         N122431 N122191  22n  TC=0,0 
X_TX20    N122977 0 N122387 0 SCHEMATIC1_TX20 
V_V31         N122291 0 DC 15V  
V_V35         N122681 0 DC 300V AC 0 
X_TX19    N122259 0 N123277 N122103 SCHEMATIC1_TX19 
C_C75         0 N123009  47u  TC=0,0 
D_D35         0 N1220871 D1N4744A 
X_M13         N122103 N122099 0 IRFP460
C_C71         0 N122291  47u  TC=0,0 
C_C76         N122103 N123475  1n  TC=0,0 
V_V34         N123057 0  
+PULSE 0V 15V 30usec 0 0 2usec 20usec
X_Q27         0 N122921 N122971 awb2n3906 PARAMS:                              
+               
C_C77         0 N123513  1n  TC=0,0 
C_C73         0 N122633  2.2u  TC=0,0 
X_Q24         N122291 N122191 N122245 awb2n3904 PARAMS:                        
+                     
X_Q25         0 N122191 N122245 awb2n3906 PARAMS:                              
+               
R_R89         N122633 N122681  150k TC=0,0 
X_C78         N122245 N122259 awbcapacitor PARAMS: CAP=10U C1=10N C2=2 C3=111
+  ESL=100U RESL=10 ESR=11 RP=12M TC=100 TC1_ESR=10 TC2_ESR=10
R_R90         0 N122633  150k TC=0,0 
C_C74         N123057 N122921  22n  TC=0,0 
R_R92         N123057 N122921  1k TC=0,0 
R_R88         0 N122609  150 TC=0,0 
V_V32         N122431 0  
+PULSE 0V 15V 20usec 0 0 2usec 20usec
R_R85         N122431 N122191  1k TC=0,0 
V_V33         N123009 0 DC 15V  
R_R86         0 N122099  10k TC=0,0 

.subckt SCHEMATIC1_TX6 1 2 3 4  
K_TX6         L1_TX6 L2_TX6 1
L1_TX6         1 2 600uH
L2_TX6         3 4 15000uH
.ends SCHEMATIC1_TX6

.subckt SCHEMATIC1_TX5 1 2 3 4  
K_TX5         L1_TX5 L2_TX5 1
L1_TX5         1 2 1000uH
L2_TX5         3 4 5000uH
.ends SCHEMATIC1_TX5

.subckt SCHEMATIC1_TX4 1 2 3 4  
K_TX4         L1_TX4 L2_TX4 1
L1_TX4         1 2 1000uH
L2_TX4         3 4 5000uH
.ends SCHEMATIC1_TX4

.subckt SCHEMATIC1_TX17 1 2 3 4  
K_TX17         L1_TX17 L2_TX17 1
L1_TX17         1 2 1000uH
L2_TX17         3 4 5000uH
.ends SCHEMATIC1_TX17

.subckt SCHEMATIC1_TX16 1 2 3 4  
K_TX16         L1_TX16 L2_TX16 1
L1_TX16         1 2 1000uH
L2_TX16         3 4 5000uH
.ends SCHEMATIC1_TX16

.subckt SCHEMATIC1_TX18 1 2 3 4  
K_TX18         L1_TX18 L2_TX18 1
L1_TX18         1 2 600uH
L2_TX18         3 4 15000uH
.ends SCHEMATIC1_TX18

.subckt SCHEMATIC1_TX21 1 2 3 4  
K_TX21         L1_TX21 L2_TX21 1
L1_TX21         1 2 600uH
L2_TX21         3 4 15000uH
.ends SCHEMATIC1_TX21

.subckt SCHEMATIC1_TX20 1 2 3 4  
K_TX20         L1_TX20 L2_TX20 1
L1_TX20         1 2 5000uH
L2_TX20         3 4 10000uH
.ends SCHEMATIC1_TX20

.subckt SCHEMATIC1_TX19 1 2 3 4  
K_TX19         L1_TX19 L2_TX19 1
L1_TX19         1 2 5000uH
L2_TX19         3 4 10000uH
.ends SCHEMATIC1_TX19

**** RESUMING Trans.cir ****
.END

**** 05/08/18 16:56:06 ****** PSpice 16.5.0 (April 2011) ****** ID# 0 ********

 ** Profile: "SCHEMATIC1-Trans"  [ D:\My_Work\20171211_Femto_LF Gen\0_GitHub_Data_LF\2_LF_Generator_Main\4_Review_Data\lf_gen-pspicef


 ****     Diode MODEL PARAMETERS


******************************************************************************




               D1N4744A        D1N4740A        X_M3.MD         X_M3.MD1        
          IS    4.997600E-24    9.499996E-06   10.000000E-18    0            
           N    1.6405          3.38339          .70113        50            
         ISR    2.247333E-06   10.010000E-21                                 
          NR    2.89714                                                      
          BV   15.048          10.055         500                            
         IBV     .1296           .20695       250.000000E-06                 
          RS     .21797          .143217        9.080380E-03                 
          TT  605.000000E-09  605.620000E-09                                 
         CJO  260.000000E-12  350.000000E-12    6.161040E-09    5.000000E-09 
          VJ     .46328          .75            1.30742         1.83303      
           M     .2466           .22336          .9              .9          
          FC                                                   10.000000E-09 
          EG                                    1.00085                      
         XTI                                    1.00002                      


               X_M3.MD2        X_M3.MD3        X_M4.MD         X_M4.MD1        
          IS  100.000000E-12  100.000000E-12   10.000000E-18    0            
           N                                     .70113        50            
          BV                                  500                            
         IBV                                  250.000000E-06                 
          RS    3.000000E-06                    9.080380E-03                 
         CJO                                    6.161040E-09    5.000000E-09 
          VJ                                    1.30742         1.83303      
           M                                     .9              .9          
          FC                                                   10.000000E-09 
          EG                                    1.00085                      
         XTI                                    1.00002                      


               X_M4.MD2        X_M4.MD3        X_M12.MD        X_M12.MD1       
          IS  100.000000E-12  100.000000E-12   10.000000E-18    0            
           N                                     .70113        50            
          BV                                  500                            
         IBV                                  250.000000E-06                 
          RS    3.000000E-06                    9.080380E-03                 
         CJO                                    6.161040E-09    5.000000E-09 
          VJ                                    1.30742         1.83303      
           M                                     .9              .9          
          FC                                                   10.000000E-09 
          EG                                    1.00085                      
         XTI                                    1.00002                      


               X_M12.MD2       X_M12.MD3       X_M11.MD        X_M11.MD1       
          IS  100.000000E-12  100.000000E-12   10.000000E-18    0            
           N                                     .70113        50            
          BV                                  500                            
         IBV                                  250.000000E-06                 
          RS    3.000000E-06                    9.080380E-03                 
         CJO                                    6.161040E-09    5.000000E-09 
          VJ                                    1.30742         1.83303      
           M                                     .9              .9          
          FC                                                   10.000000E-09 
          EG                                    1.00085                      
         XTI                                    1.00002                      


               X_M11.MD2       X_M11.MD3       X_M14.MD        X_M14.MD1       
          IS  100.000000E-12  100.000000E-12   10.000000E-18    0            
           N                                     .70113        50            
          BV                                  500                            
         IBV                                  250.000000E-06                 
          RS    3.000000E-06                    9.080380E-03                 
         CJO                                    6.161040E-09    5.000000E-09 
          VJ                                    1.30742         1.83303      
           M                                     .9              .9          
          FC                                                   10.000000E-09 
          EG                                    1.00085                      
         XTI                                    1.00002                      


               X_M14.MD2       X_M14.MD3       X_M13.MD        X_M13.MD1       
          IS  100.000000E-12  100.000000E-12   10.000000E-18    0            
           N                                     .70113        50            
          BV                                  500                            
         IBV                                  250.000000E-06                 
          RS    3.000000E-06                    9.080380E-03                 
         CJO                                    6.161040E-09    5.000000E-09 
          VJ                                    1.30742         1.83303      
           M                                     .9              .9          
          FC                                                   10.000000E-09 
          EG                                    1.00085                      
         XTI                                    1.00002                      


               X_M13.MD2       X_M13.MD3       
          IS  100.000000E-12  100.000000E-12 
          RS    3.000000E-06                 


**** 05/08/18 16:56:06 ****** PSpice 16.5.0 (April 2011) ****** ID# 0 ********

 ** Profile: "SCHEMATIC1-Trans"  [ D:\My_Work\20171211_Femto_LF Gen\0_GitHub_Data_LF\2_LF_Generator_Main\4_Review_Data\lf_gen-pspicef


 ****     BJT MODEL PARAMETERS


******************************************************************************




               X_Q6.model7     X_Q7.model4     X_Q8.model7     X_Q5.model4     
               PNP             NPN             PNP             NPN             
       LEVEL    1               1               1               1            
          IS  218.880000E-15  172.800000E-18  218.880000E-15  172.800000E-18 
          EG                    1.206                           1.206        
          BF  200             254.395         200             254.395        
          NF    1.221            .85            1.221            .85         
         VAF   50              10              50              10            
         IKF     .15             .016374         .15             .016374     
         ISE    2.364000E-12    9.974460E-15    2.364000E-12    9.974460E-15 
          NE    2.155           1.20863         2.155           1.20863      
          BR    4.68             .1             4.68             .1          
          NR    1.221            .891964        1.221            .891964     
         VAR  500               7.74046       500               7.74046      
         IKR                     .163741                         .163741     
         ISC                    9.974460E-15                    9.974460E-15 
          NC    1               2.84343         1               2.84343      
         ISS    0               0               0               0            
          RB   12              28.3394         12              28.3394       
         RBM   12                .01           12                .01         
         IRB                     .01                             .01         
          RE     .1             1.339110E-03     .1             1.339110E-03 
          RC    1.5             2.08353         1.5             2.08353      
         CJE    6.250000E-12    4.566140E-12    6.250000E-12    4.566140E-12 
         VJE     .916            .4              .916            .4          
         MJE     .3898           .245712         .3898           .245712     
         CJC    6.600000E-12    3.724850E-12    6.600000E-12    3.724850E-12 
         VJC    1.67             .4             1.67             .4          
         MJC     .4065           .236002         .4065           .236002     
        XCJC     .5              .8              .5              .8          
         CJS    0               0               0               0            
         VJS     .7              .75             .7              .75         
         MJS     .5              .5              .5              .5          
          FC                     .519152                         .519152     
          TF  361.720000E-12  481.412000E-12  361.720000E-12  481.412000E-12 
         XTF   21                .9628         21                .9628       
         VTF    4.7             9.52193         4.7             9.52193      
         ITF     .26             .011333         .26             .011333     
          TR   19.920000E-09    1.303990E-06   19.920000E-09    1.303990E-06 
         XTB    1.7             1.20888         1.7             1.20888      
         XTI                    1.34879                         1.34879      
          KF    0               0               0               0            
          AF    1               1               1               1            
          CN    2.2             2.42            2.2             2.42         
           D     .52             .87             .52             .87         


               X_Q21.model7    X_Q23.model7    X_Q20.model4    X_Q22.model4    
               PNP             PNP             NPN             NPN             
       LEVEL    1               1               1               1            
          IS  218.880000E-15  218.880000E-15  172.800000E-18  172.800000E-18 
          EG                                    1.206           1.206        
          BF  200             200             254.395         254.395        
          NF    1.221           1.221            .85             .85         
         VAF   50              50              10              10            
         IKF     .15             .15             .016374         .016374     
         ISE    2.364000E-12    2.364000E-12    9.974460E-15    9.974460E-15 
          NE    2.155           2.155           1.20863         1.20863      
          BR    4.68            4.68             .1              .1          
          NR    1.221           1.221            .891964         .891964     
         VAR  500             500               7.74046         7.74046      
         IKR                                     .163741         .163741     
         ISC                                    9.974460E-15    9.974460E-15 
          NC    1               1               2.84343         2.84343      
         ISS    0               0               0               0            
          RB   12              12              28.3394         28.3394       
         RBM   12              12                .01             .01         
         IRB                                     .01             .01         
          RE     .1              .1             1.339110E-03    1.339110E-03 
          RC    1.5             1.5             2.08353         2.08353      
         CJE    6.250000E-12    6.250000E-12    4.566140E-12    4.566140E-12 
         VJE     .916            .916            .4              .4          
         MJE     .3898           .3898           .245712         .245712     
         CJC    6.600000E-12    6.600000E-12    3.724850E-12    3.724850E-12 
         VJC    1.67            1.67             .4              .4          
         MJC     .4065           .4065           .236002         .236002     
        XCJC     .5              .5              .8              .8          
         CJS    0               0               0               0            
         VJS     .7              .7              .75             .75         
         MJS     .5              .5              .5              .5          
          FC                                     .519152         .519152     
          TF  361.720000E-12  361.720000E-12  481.412000E-12  481.412000E-12 
         XTF   21              21                .9628           .9628       
         VTF    4.7             4.7             9.52193         9.52193      
         ITF     .26             .26             .011333         .011333     
          TR   19.920000E-09   19.920000E-09    1.303990E-06    1.303990E-06 
         XTB    1.7             1.7             1.20888         1.20888      
         XTI                                    1.34879         1.34879      
          KF    0               0               0               0            
          AF    1               1               1               1            
          CN    2.2             2.2             2.42            2.42         
           D     .52             .52             .87             .87         


               X_Q26.model4    X_Q27.model7    X_Q24.model4    X_Q25.model7    
               NPN             PNP             NPN             PNP             
       LEVEL    1               1               1               1            
          IS  172.800000E-18  218.880000E-15  172.800000E-18  218.880000E-15 
          EG    1.206                           1.206                        
          BF  254.395         200             254.395         200            
          NF     .85            1.221            .85            1.221        
         VAF   10              50              10              50            
         IKF     .016374         .15             .016374         .15         
         ISE    9.974460E-15    2.364000E-12    9.974460E-15    2.364000E-12 
          NE    1.20863         2.155           1.20863         2.155        
          BR     .1             4.68             .1             4.68         
          NR     .891964        1.221            .891964        1.221        
         VAR    7.74046       500               7.74046       500            
         IKR     .163741                         .163741                     
         ISC    9.974460E-15                    9.974460E-15                 
          NC    2.84343         1               2.84343         1            
         ISS    0               0               0               0            
          RB   28.3394         12              28.3394         12            
         RBM     .01           12                .01           12            
         IRB     .01                             .01                         
          RE    1.339110E-03     .1             1.339110E-03     .1          
          RC    2.08353         1.5             2.08353         1.5          
         CJE    4.566140E-12    6.250000E-12    4.566140E-12    6.250000E-12 
         VJE     .4              .916            .4              .916        
         MJE     .245712         .3898           .245712         .3898       
         CJC    3.724850E-12    6.600000E-12    3.724850E-12    6.600000E-12 
         VJC     .4             1.67             .4             1.67         
         MJC     .236002         .4065           .236002         .4065       
        XCJC     .8              .5              .8              .5          
         CJS    0               0               0               0            
         VJS     .75             .7              .75             .7          
         MJS     .5              .5              .5              .5          
          FC     .519152                         .519152                     
          TF  481.412000E-12  361.720000E-12  481.412000E-12  361.720000E-12 
         XTF     .9628         21                .9628         21            
         VTF    9.52193         4.7             9.52193         4.7          
         ITF     .011333         .26             .011333         .26         
          TR    1.303990E-06   19.920000E-09    1.303990E-06   19.920000E-09 
         XTB    1.20888         1.7             1.20888         1.7          
         XTI    1.34879                         1.34879                      
          KF    0               0               0               0            
          AF    1               1               1               1            
          CN    2.42            2.2             2.42            2.2          
           D     .87             .52             .87             .52         


**** 05/08/18 16:56:06 ****** PSpice 16.5.0 (April 2011) ****** ID# 0 ********

 ** Profile: "SCHEMATIC1-Trans"  [ D:\My_Work\20171211_Femto_LF Gen\0_GitHub_Data_LF\2_LF_Generator_Main\4_Review_Data\lf_gen-pspicef


 ****     MOSFET MODEL PARAMETERS


******************************************************************************




               X_M3.MM         X_M4.MM         X_M12.MM        X_M11.MM        
               NMOS            NMOS            NMOS            NMOS            
       LEVEL    1               1               1               1            
           L  100.000000E-06  100.000000E-06  100.000000E-06  100.000000E-06 
           W  100.000000E-06  100.000000E-06  100.000000E-06  100.000000E-06 
         VTO    3.854           3.854           3.854           3.854        
          KP   29.2045         29.2045         29.2045         29.2045       
       GAMMA    0               0               0               0            
         PHI     .6              .6              .6              .6          
      LAMBDA     .010185         .010185         .010185         .010185     
          IS    0               0               0               0            
          JS    0               0               0               0            
          PB     .8              .8              .8              .8          
        PBSW     .8              .8              .8              .8          
          CJ    0               0               0               0            
        CJSW    0               0               0               0            
        CGSO   42.055500E-06   42.055500E-06   42.055500E-06   42.055500E-06 
        CGDO   10.000000E-12   10.000000E-12   10.000000E-12   10.000000E-12 
        CGBO    0               0               0               0            
         TOX    0               0               0               0            
          XJ    0               0               0               0            
       UCRIT   10.000000E+03   10.000000E+03   10.000000E+03   10.000000E+03 
      DIOMOD    1               1               1               1            
         VFB    0               0               0               0            
        LETA    0               0               0               0            
        WETA    0               0               0               0            
          U0    0               0               0               0            
        TEMP    0               0               0               0            
         VDD    5               5               5               5            
       XPART    0               0               0               0            


               X_M14.MM        X_M13.MM        
               NMOS            NMOS            
       LEVEL    1               1            
           L  100.000000E-06  100.000000E-06 
           W  100.000000E-06  100.000000E-06 
         VTO    3.854           3.854        
          KP   29.2045         29.2045       
       GAMMA    0               0            
         PHI     .6              .6          
      LAMBDA     .010185         .010185     
          IS    0               0            
          JS    0               0            
          PB     .8              .8          
        PBSW     .8              .8          
          CJ    0               0            
        CJSW    0               0            
        CGSO   42.055500E-06   42.055500E-06 
        CGDO   10.000000E-12   10.000000E-12 
        CGBO    0               0            
         TOX    0               0            
          XJ    0               0            
       UCRIT   10.000000E+03   10.000000E+03 
      DIOMOD    1               1            
         VFB    0               0            
        LETA    0               0            
        WETA    0               0            
          U0    0               0            
        TEMP    0               0            
         VDD    5               5            
       XPART    0               0            


**** 05/08/18 16:56:06 ****** PSpice 16.5.0 (April 2011) ****** ID# 0 ********

 ** Profile: "SCHEMATIC1-Trans"  [ D:\My_Work\20171211_Femto_LF Gen\0_GitHub_Data_LF\2_LF_Generator_Main\4_Review_Data\lf_gen-pspicef


 ****     INITIAL TRANSIENT SOLUTION       TEMPERATURE =   27.000 DEG C


******************************************************************************



 NODE   VOLTAGE     NODE   VOLTAGE     NODE   VOLTAGE     NODE   VOLTAGE


(N17266)  150.0000 (N17368) 150.0E-09 (N17406) 413.0E-12 (N17436)    0.0000     

(N17468)   15.0000 (N17568)    0.0000 (N17574) 4.494E-09 (N17606)    0.0000     

(N17836)    0.0000 (N17866)  150.0000 (N17914)  300.0000 (N18076)  150.0000     

(N18162) 150.0E-09 (N18220) 413.0E-12 (N18246)    0.0000 (N18278)   15.0000     

(N18326)    0.0000 (N18546)  150.0000 (X_M3.4)    0.0000 (X_M3.5)  150.0000     

(X_M3.6)  150.0000 (X_M3.7) 5.831E-09 (X_M3.8) 4.241E-12 (X_M3.9)  150.0000     

(X_M4.4)    0.0000 (X_M4.5)  150.0000 (X_M4.6)  150.0000 (X_M4.7)  150.0000     

(X_M4.8)  150.0000 (X_M4.9)  300.0000 (N112282)  150.0000                       

(N112306) 4.494E-09                   (N112310)  150.0000                       

(N112398) 150.0E-09                   (N112452) 413.0E-12                       

(N112466)    0.0000                   (N112498)   15.0000                       

(N112594)-528.6E-24                   (N112638)    0.0000                       

(N112816)    0.0000                   (N112840)  150.0000                       

(N112888)  300.0000                   (N113128) 150.0E-09                       

(N113178) 413.0E-12                   (N113184)    0.0000                       

(N113216)   15.0000                   (N113264)    0.0000                       

(N113484)  150.0000                   (N113885)  300.0000                       

(N114015)  150.0000                   (N122075)  150.0000                       

(N122099) 4.494E-09                   (N122103)  150.0000                       

(N122191) 150.0E-09                   (N122245) 413.0E-12                       

(N122259)    0.0000                   (N122291)   15.0000                       

(N122387) 423.5E-24                   (N122431)    0.0000                       

(N122609)    0.0000                   (N122633)  150.0000                       

(N122681)  300.0000                   (N122921) 150.0E-09                       

(N122971) 413.0E-12                   (N122977)    0.0000                       

(N123009)   15.0000                   (N123057)    0.0000                       

(N123277)  150.0000                   (N123475)  300.0000                       

(N123513)  150.0000                   (N851801)  150.0000                       

(N852271) 3.521E-09                   (X_M11.4)    0.0000                       

(X_M11.5)  150.0000                   (X_M11.6)  150.0000                       

(X_M11.7) 5.831E-09                   (X_M11.8) 4.241E-12                       

(X_M11.9)  150.0000                   (X_M12.4)    0.0000                       

(X_M12.5)  150.0000                   (X_M12.6)  150.0000                       

(X_M12.7)  150.0000                   (X_M12.8)  150.0000                       

(X_M12.9)  300.0000                   (X_M13.4)    0.0000                       

(X_M13.5)  150.0000                   (X_M13.6)  150.0000                       

(X_M13.7) 5.831E-09                   (X_M13.8) 4.241E-12                       

(X_M13.9)  150.0000                   (X_M14.4)    0.0000                       

(X_M14.5)  150.0000                   (X_M14.6)  150.0000                       

(X_M14.7)  150.0000                   (X_M14.8)  150.0000                       

(X_M14.9)  300.0000                   (X_M3.10)  150.0000                       

(X_M3.11)  150.0000                   (X_M4.10)  150.0000                       

(X_M4.11)  150.0000                   (N1122701)  150.0000                      

(N1122941) 3.521E-09                  (N1220631)  150.0000                      

(N1220871) 3.521E-09                  (X_M11.10)  150.0000                      

(X_M11.11)  150.0000                  (X_M12.10)  150.0000                      

(X_M12.11)  150.0000                  (X_M13.10)  150.0000                      

(X_M13.11)  150.0000                  (X_M14.10)  150.0000                      

(X_M14.11)  150.0000                  (X_C22.xinstcapacitor.3) 412.5E-12        

(X_C22.xinstcapacitor.4) 412.5E-12    (X_C57.xinstcapacitor.3) 412.5E-12        

(X_C57.xinstcapacitor.4) 412.5E-12    (X_C67.xinstcapacitor.3) 412.5E-12        

(X_C67.xinstcapacitor.4) 412.5E-12    (X_C68.xinstcapacitor.3) 412.5E-12        

(X_C68.xinstcapacitor.4) 412.5E-12    (X_C69.xinstcapacitor.3) 412.5E-12        

(X_C69.xinstcapacitor.4) 412.5E-12    (X_C78.xinstcapacitor.3) 412.5E-12        

(X_C78.xinstcapacitor.4) 412.5E-12                                              

(X_C22.xinstcapacitor.AWBDISCAP_DUMMY1)    1.0000                               

(X_C22.xinstcapacitor.AWBDISCAP_DUMMY2)    1.0000                               

(X_C22.xinstcapacitor.AWBDISCAP_DUMMY3)    1.0000                               

(X_C22.xinstcapacitor.AWBDISCAP_DUMMY4)    1.0000                               

(X_C57.xinstcapacitor.AWBDISCAP_DUMMY1)    1.0000                               

(X_C57.xinstcapacitor.AWBDISCAP_DUMMY2)    1.0000                               

(X_C57.xinstcapacitor.AWBDISCAP_DUMMY3)    1.0000                               

(X_C57.xinstcapacitor.AWBDISCAP_DUMMY4)    1.0000                               

(X_C67.xinstcapacitor.AWBDISCAP_DUMMY1)    1.0000                               

(X_C67.xinstcapacitor.AWBDISCAP_DUMMY2)    1.0000                               

(X_C67.xinstcapacitor.AWBDISCAP_DUMMY3)    1.0000                               

(X_C67.xinstcapacitor.AWBDISCAP_DUMMY4)    1.0000                               

(X_C68.xinstcapacitor.AWBDISCAP_DUMMY1)    1.0000                               

(X_C68.xinstcapacitor.AWBDISCAP_DUMMY2)    1.0000                               

(X_C68.xinstcapacitor.AWBDISCAP_DUMMY3)    1.0000                               

(X_C68.xinstcapacitor.AWBDISCAP_DUMMY4)    1.0000                               

(X_C69.xinstcapacitor.AWBDISCAP_DUMMY1)    1.0000                               

(X_C69.xinstcapacitor.AWBDISCAP_DUMMY2)    1.0000                               

(X_C69.xinstcapacitor.AWBDISCAP_DUMMY3)    1.0000                               

(X_C69.xinstcapacitor.AWBDISCAP_DUMMY4)    1.0000                               

(X_C78.xinstcapacitor.AWBDISCAP_DUMMY1)    1.0000                               

(X_C78.xinstcapacitor.AWBDISCAP_DUMMY2)    1.0000                               

(X_C78.xinstcapacitor.AWBDISCAP_DUMMY3)    1.0000                               

(X_C78.xinstcapacitor.AWBDISCAP_DUMMY4)    1.0000        




    VOLTAGE SOURCE CURRENTS
    NAME         CURRENT

    V_V7         1.500E-10
    V_V9         1.500E-10
    V_V6        -1.875E-10
    V_V8        -1.875E-10
    V_V10       -1.008E-03
    V_V27        1.500E-10
    V_V28       -1.875E-10
    V_V29        1.500E-10
    V_V30       -1.008E-03
    V_V26       -1.875E-10
    V_V31       -1.875E-10
    V_V35       -1.008E-03
    V_V34        1.500E-10
    V_V32        1.500E-10
    V_V33       -1.875E-10
    X_M3.VFI2    1.500E-10
    X_M3.VFI1    0.000E+00
    X_M4.VFI2    1.500E-10
    X_M4.VFI1    0.000E+00
    X_M12.VFI2   1.500E-10
    X_M12.VFI1   0.000E+00
    X_M11.VFI2   1.500E-10
    X_M11.VFI1   0.000E+00
    X_M14.VFI2   1.500E-10
    X_M14.VFI1   0.000E+00
    X_M13.VFI2   1.500E-10
    X_M13.VFI1   0.000E+00

    TOTAL POWER DISSIPATION   9.07E-01  WATTS



          JOB CONCLUDED

**** 05/08/18 16:56:06 ****** PSpice 16.5.0 (April 2011) ****** ID# 0 ********

 ** Profile: "SCHEMATIC1-Trans"  [ D:\My_Work\20171211_Femto_LF Gen\0_GitHub_Data_LF\2_LF_Generator_Main\4_Review_Data\lf_gen-pspicef


 ****     JOB STATISTICS SUMMARY


******************************************************************************



  Total job time (using Solver 1)   =        1.11
