
**** 04/22/18 17:50:01 ****** PSpice 16.5.0 (April 2011) ****** ID# 0 ********

 ** Profile: "SCHEMATIC1-Trans"  [ C:\WORK\Project\2_Plasma_LF_Generator\2_LF_Generator_Main\4_Review_Data\lf_gen-pspicefiles\schemat


 ****     CIRCUIT DESCRIPTION


******************************************************************************




** Creating circuit file "Trans.cir" 
** WARNING: THIS AUTOMATICALLY GENERATED FILE MAY BE OVERWRITTEN BY SUBSEQUENT SIMULATIONS

*Libraries: 
* Profile Libraries :
* Local Libraries :
* From [PSPICE NETLIST] section of C:\Cadence\SPB_16.5\tools\PSpice\PSpice.ini file:
.lib "nom.lib" 

*Analysis directives: 
.TRAN  0 200us 0 
.PROBE V(alias(*)) I(alias(*)) W(alias(*)) D(alias(*)) NOISE(alias(*)) 
.INC "..\SCHEMATIC1.net" 



**** INCLUDING SCHEMATIC1.net ****
* source LF_GEN
X_M3         N17266 N17574 0 IRFP460
X_TX6    N17266 N17866 N17836 0 SCHEMATIC1_TX6 
V_V7         N17606 0  
+PULSE 0V 15V 20usec 0 0 2usec 20usec
X_Q6         0 N17368 N17406 awb2n3906 PARAMS:                                 
+            
R_R24         N18326 N18162  1k TC=0,0 
R_R15         N17606 N17368  1k TC=0,0 
X_TX5    N18246 0 N17568 0 SCHEMATIC1_TX5 
C_C14         N18326 N18162  22n  TC=0,0 
X_Q7         N18278 N18162 N18220 awb2n3904 PARAMS:                            
+                 
R_R22         0 N17866  150k TC=0,0 
R_R23         N17266 N18076  10k TC=0,0 
C_C13         0 N17866  20u  TC=0,0 
V_V9         N18326 0  
+PULSE 0V 15V 30usec 0 0 2usec 20usec
R_R17         N17574 N17568  10 TC=0,0 
C_C12         N17866 N17914  20u  TC=0,0 
C_C11         0 N17468  47u  TC=0,0 
R_R20         0 N17836  50 TC=0,0 
X_Q8         0 N18162 N18220 awb2n3906 PARAMS:                                 
+            
V_V6         N17468 0 DC 15V  
X_M4         N17914 N18076 N17266 IRFP460
X_TX4    N17436 0 N18546 N17266 SCHEMATIC1_TX4 
C_C9         N17606 N17368  22n  TC=0,0 
V_V8         N18278 0 DC 15V  
V_V10         N17914 0 DC 220V  
R_R25         N18076 N18546  10 TC=0,0 
C_C16         0 N18278  47u  TC=0,0 
X_Q5         N17468 N17368 N17406 awb2n3904 PARAMS:                            
+                 
R_R16         0 N17574  10k TC=0,0 
R_R21         N17866 N17914  150k TC=0,0 
X_C22         N18220 N18246 awbcapacitor PARAMS: CAP=10U C1=10N C2=2 C3=111
+  ESL=100U RESL=10 ESR=11 RP=12M TC=100 TC1_ESR=10 TC2_ESR=10
D_D18         N17266 N851801 D1N4744A 
D_D19         0 N852271 D1N4744A 
V_V22         N90303 0  
+PULSE 0V 15V 20usec 0 0 2usec 20usec
V_V24         N90979 0  
+PULSE 0V 15V 30usec 0 0 2usec 20usec
R_R62         0 N90267  10k TC=0,0 
D_D23         0 N913351 D1N4744A 
X_C46         N90119 N90133 awbcapacitor PARAMS: CAP=10U C1=10N C2=2 C3=111
+  ESL=100U RESL=10 ESR=11 RP=12M TC=100 TC1_ESR=10 TC2_ESR=10
C_C51         0 N90555  2.2u  TC=0,0 
R_R66         0 N90525  50 TC=0,0 
X_Q18         N90931 N90843 N90893 awb2n3904 PARAMS:                           
+                  
X_C47         N90893 N90899 awbcapacitor PARAMS: CAP=10U C1=10N C2=2 C3=111
+  ESL=100U RESL=10 ESR=11 RP=12M TC=100 TC1_ESR=10 TC2_ESR=10
X_Q19         0 N90843 N90893 awb2n3906 PARAMS:                                
+             
R_R70         N90979 N90843  1k TC=0,0 
R_R67         N90555 N90603  150k TC=0,0 
C_C49         0 N90165  47u  TC=0,0 
R_R61         N90303 N90065  1k TC=0,0 
X_TX14    N90899 0 N90261 0 SCHEMATIC1_TX14 
X_M10         N90603 N90757 N89977 IRFP460
C_C50         N90555 N90603  2.2u  TC=0,0 
X_TX13    N90133 0 N91199 N89977 SCHEMATIC1_TX13 
D_D25         N90267 N913351 D1N4740A 
X_Q16         N90165 N90065 N90119 awb2n3904 PARAMS:                           
+                  
D_D24         N90757 N913111 D1N4740A 
R_R68         0 N90555  150k TC=0,0 
C_C53         0 N90931  47u  TC=0,0 
X_Q17         0 N90065 N90119 awb2n3906 PARAMS:                                
+             
C_C48         N90303 N90065  22n  TC=0,0 
V_V21         N90165 0 DC 15V  
V_V25         N90603 0 DC 220V  
C_C52         N90979 N90843  22n  TC=0,0 
R_R63         N90267 N90261  10 TC=0,0 
R_R69         N89977 N90757  10k TC=0,0 
D_D22         N89977 N913111 D1N4744A 
V_V23         N90931 0 DC 15V  
X_TX15    N89977 N90555 N90525 0 SCHEMATIC1_TX15 
R_R71         N90757 N91199  10 TC=0,0 
X_M9         N89977 N90267 0 IRFP460
C_C54         N89977 N91629  0.2u  TC=0,0 
R_R72         N91629 N90603  50 TC=0,0 
R_R73         N92147 N90555  50 TC=0,0 
C_C55         0 N92147  0.2u  TC=0,0 
D_D26         N18076 N851801 D1N4740A 
D_D27         N17574 N852271 D1N4740A 
C_C56         N17406 N17436  10U  TC=0,0 

.subckt SCHEMATIC1_TX6 1 2 3 4  
K_TX6         L1_TX6 L2_TX6 1
L1_TX6         1 2 600uH
L2_TX6         3 4 15000uH
.ends SCHEMATIC1_TX6

.subckt SCHEMATIC1_TX5 1 2 3 4  
K_TX5         L1_TX5 L2_TX5 1
L1_TX5         1 2 1000uH
L2_TX5         3 4 5000uH
.ends SCHEMATIC1_TX5

.subckt SCHEMATIC1_TX4 1 2 3 4  
K_TX4         L1_TX4 L2_TX4 1
L1_TX4         1 2 1000uH
L2_TX4         3 4 5000uH
.ends SCHEMATIC1_TX4

.subckt SCHEMATIC1_TX14 1 2 3 4  
K_TX14         L1_TX14 L2_TX14 1
L1_TX14         1 2 1000uH
L2_TX14         3 4 5000uH
.ends SCHEMATIC1_TX14

.subckt SCHEMATIC1_TX13 1 2 3 4  
K_TX13         L1_TX13 L2_TX13 1
L1_TX13         1 2 1000uH
L2_TX13         3 4 5000uH
.ends SCHEMATIC1_TX13

.subckt SCHEMATIC1_TX15 1 2 3 4  
K_TX15         L1_TX15 L2_TX15 1
L1_TX15         1 2 600uH
L2_TX15         3 4 15000uH
.ends SCHEMATIC1_TX15

**** RESUMING Trans.cir ****
.END

**** 04/22/18 17:50:01 ****** PSpice 16.5.0 (April 2011) ****** ID# 0 ********

 ** Profile: "SCHEMATIC1-Trans"  [ C:\WORK\Project\2_Plasma_LF_Generator\2_LF_Generator_Main\4_Review_Data\lf_gen-pspicefiles\schemat


 ****     Diode MODEL PARAMETERS


******************************************************************************




               D1N4744A        D1N4740A        X_M3.MD         X_M3.MD1        
          IS    4.997600E-24    9.499996E-06   10.000000E-18    0            
           N    1.6405          3.38339          .70113        50            
         ISR    2.247333E-06   10.010000E-21                                 
          NR    2.89714                                                      
          BV   15.048          10.055         500                            
         IBV     .1296           .20695       250.000000E-06                 
          RS     .21797          .143217        9.080380E-03                 
          TT  605.000000E-09  605.620000E-09                                 
         CJO  260.000000E-12  350.000000E-12    6.161040E-09    5.000000E-09 
          VJ     .46328          .75            1.30742         1.83303      
           M     .2466           .22336          .9              .9          
          FC                                                   10.000000E-09 
          EG                                    1.00085                      
         XTI                                    1.00002                      


               X_M3.MD2        X_M3.MD3        X_M4.MD         X_M4.MD1        
          IS  100.000000E-12  100.000000E-12   10.000000E-18    0            
           N                                     .70113        50            
          BV                                  500                            
         IBV                                  250.000000E-06                 
          RS    3.000000E-06                    9.080380E-03                 
         CJO                                    6.161040E-09    5.000000E-09 
          VJ                                    1.30742         1.83303      
           M                                     .9              .9          
          FC                                                   10.000000E-09 
          EG                                    1.00085                      
         XTI                                    1.00002                      


               X_M4.MD2        X_M4.MD3        X_M10.MD        X_M10.MD1       
          IS  100.000000E-12  100.000000E-12   10.000000E-18    0            
           N                                     .70113        50            
          BV                                  500                            
         IBV                                  250.000000E-06                 
          RS    3.000000E-06                    9.080380E-03                 
         CJO                                    6.161040E-09    5.000000E-09 
          VJ                                    1.30742         1.83303      
           M                                     .9              .9          
          FC                                                   10.000000E-09 
          EG                                    1.00085                      
         XTI                                    1.00002                      


               X_M10.MD2       X_M10.MD3       X_M9.MD         X_M9.MD1        
          IS  100.000000E-12  100.000000E-12   10.000000E-18    0            
           N                                     .70113        50            
          BV                                  500                            
         IBV                                  250.000000E-06                 
          RS    3.000000E-06                    9.080380E-03                 
         CJO                                    6.161040E-09    5.000000E-09 
          VJ                                    1.30742         1.83303      
           M                                     .9              .9          
          FC                                                   10.000000E-09 
          EG                                    1.00085                      
         XTI                                    1.00002                      


               X_M9.MD2        X_M9.MD3        
          IS  100.000000E-12  100.000000E-12 
          RS    3.000000E-06                 


**** 04/22/18 17:50:01 ****** PSpice 16.5.0 (April 2011) ****** ID# 0 ********

 ** Profile: "SCHEMATIC1-Trans"  [ C:\WORK\Project\2_Plasma_LF_Generator\2_LF_Generator_Main\4_Review_Data\lf_gen-pspicefiles\schemat


 ****     BJT MODEL PARAMETERS


******************************************************************************




               X_Q6.model7     X_Q7.model4     X_Q8.model7     X_Q5.model4     
               PNP             NPN             PNP             NPN             
       LEVEL    1               1               1               1            
          IS  218.880000E-15  172.800000E-18  218.880000E-15  172.800000E-18 
          EG                    1.206                           1.206        
          BF  200             254.395         200             254.395        
          NF    1.221            .85            1.221            .85         
         VAF   50              10              50              10            
         IKF     .15             .016374         .15             .016374     
         ISE    2.364000E-12    9.974460E-15    2.364000E-12    9.974460E-15 
          NE    2.155           1.20863         2.155           1.20863      
          BR    4.68             .1             4.68             .1          
          NR    1.221            .891964        1.221            .891964     
         VAR  500               7.74046       500               7.74046      
         IKR                     .163741                         .163741     
         ISC                    9.974460E-15                    9.974460E-15 
          NC    1               2.84343         1               2.84343      
         ISS    0               0               0               0            
          RB   12              28.3394         12              28.3394       
         RBM   12                .01           12                .01         
         IRB                     .01                             .01         
          RE     .1             1.339110E-03     .1             1.339110E-03 
          RC    1.5             2.08353         1.5             2.08353      
         CJE    6.250000E-12    4.566140E-12    6.250000E-12    4.566140E-12 
         VJE     .916            .4              .916            .4          
         MJE     .3898           .245712         .3898           .245712     
         CJC    6.600000E-12    3.724850E-12    6.600000E-12    3.724850E-12 
         VJC    1.67             .4             1.67             .4          
         MJC     .4065           .236002         .4065           .236002     
        XCJC     .5              .8              .5              .8          
         CJS    0               0               0               0            
         VJS     .7              .75             .7              .75         
         MJS     .5              .5              .5              .5          
          FC                     .519152                         .519152     
          TF  361.720000E-12  481.412000E-12  361.720000E-12  481.412000E-12 
         XTF   21                .9628         21                .9628       
         VTF    4.7             9.52193         4.7             9.52193      
         ITF     .26             .011333         .26             .011333     
          TR   19.920000E-09    1.303990E-06   19.920000E-09    1.303990E-06 
         XTB    1.7             1.20888         1.7             1.20888      
         XTI                    1.34879                         1.34879      
          KF    0               0               0               0            
          AF    1               1               1               1            
          CN    2.2             2.42            2.2             2.42         
           D     .52             .87             .52             .87         


               X_Q18.model4    X_Q19.model7    X_Q16.model4    X_Q17.model7    
               NPN             PNP             NPN             PNP             
       LEVEL    1               1               1               1            
          IS  172.800000E-18  218.880000E-15  172.800000E-18  218.880000E-15 
          EG    1.206                           1.206                        
          BF  254.395         200             254.395         200            
          NF     .85            1.221            .85            1.221        
         VAF   10              50              10              50            
         IKF     .016374         .15             .016374         .15         
         ISE    9.974460E-15    2.364000E-12    9.974460E-15    2.364000E-12 
          NE    1.20863         2.155           1.20863         2.155        
          BR     .1             4.68             .1             4.68         
          NR     .891964        1.221            .891964        1.221        
         VAR    7.74046       500               7.74046       500            
         IKR     .163741                         .163741                     
         ISC    9.974460E-15                    9.974460E-15                 
          NC    2.84343         1               2.84343         1            
         ISS    0               0               0               0            
          RB   28.3394         12              28.3394         12            
         RBM     .01           12                .01           12            
         IRB     .01                             .01                         
          RE    1.339110E-03     .1             1.339110E-03     .1          
          RC    2.08353         1.5             2.08353         1.5          
         CJE    4.566140E-12    6.250000E-12    4.566140E-12    6.250000E-12 
         VJE     .4              .916            .4              .916        
         MJE     .245712         .3898           .245712         .3898       
         CJC    3.724850E-12    6.600000E-12    3.724850E-12    6.600000E-12 
         VJC     .4             1.67             .4             1.67         
         MJC     .236002         .4065           .236002         .4065       
        XCJC     .8              .5              .8              .5          
         CJS    0               0               0               0            
         VJS     .75             .7              .75             .7          
         MJS     .5              .5              .5              .5          
          FC     .519152                         .519152                     
          TF  481.412000E-12  361.720000E-12  481.412000E-12  361.720000E-12 
         XTF     .9628         21                .9628         21            
         VTF    9.52193         4.7             9.52193         4.7          
         ITF     .011333         .26             .011333         .26         
          TR    1.303990E-06   19.920000E-09    1.303990E-06   19.920000E-09 
         XTB    1.20888         1.7             1.20888         1.7          
         XTI    1.34879                         1.34879                      
          KF    0               0               0               0            
          AF    1               1               1               1            
          CN    2.42            2.2             2.42            2.2          
           D     .87             .52             .87             .52         


**** 04/22/18 17:50:01 ****** PSpice 16.5.0 (April 2011) ****** ID# 0 ********

 ** Profile: "SCHEMATIC1-Trans"  [ C:\WORK\Project\2_Plasma_LF_Generator\2_LF_Generator_Main\4_Review_Data\lf_gen-pspicefiles\schemat


 ****     MOSFET MODEL PARAMETERS


******************************************************************************




               X_M3.MM         X_M4.MM         X_M10.MM        X_M9.MM         
               NMOS            NMOS            NMOS            NMOS            
       LEVEL    1               1               1               1            
           L  100.000000E-06  100.000000E-06  100.000000E-06  100.000000E-06 
           W  100.000000E-06  100.000000E-06  100.000000E-06  100.000000E-06 
         VTO    3.854           3.854           3.854           3.854        
          KP   29.2045         29.2045         29.2045         29.2045       
       GAMMA    0               0               0               0            
         PHI     .6              .6              .6              .6          
      LAMBDA     .010185         .010185         .010185         .010185     
          IS    0               0               0               0            
          JS    0               0               0               0            
          PB     .8              .8              .8              .8          
        PBSW     .8              .8              .8              .8          
          CJ    0               0               0               0            
        CJSW    0               0               0               0            
        CGSO   42.055500E-06   42.055500E-06   42.055500E-06   42.055500E-06 
        CGDO   10.000000E-12   10.000000E-12   10.000000E-12   10.000000E-12 
        CGBO    0               0               0               0            
         TOX    0               0               0               0            
          XJ    0               0               0               0            
       UCRIT   10.000000E+03   10.000000E+03   10.000000E+03   10.000000E+03 
      DIOMOD    1               1               1               1            
         VFB    0               0               0               0            
        LETA    0               0               0               0            
        WETA    0               0               0               0            
          U0    0               0               0               0            
        TEMP    0               0               0               0            
         VDD    5               5               5               5            
       XPART    0               0               0               0            


**** 04/22/18 17:50:01 ****** PSpice 16.5.0 (April 2011) ****** ID# 0 ********

 ** Profile: "SCHEMATIC1-Trans"  [ C:\WORK\Project\2_Plasma_LF_Generator\2_LF_Generator_Main\4_Review_Data\lf_gen-pspicefiles\schemat


 ****     INITIAL TRANSIENT SOLUTION       TEMPERATURE =   27.000 DEG C


******************************************************************************



 NODE   VOLTAGE     NODE   VOLTAGE     NODE   VOLTAGE     NODE   VOLTAGE


(N17266)  110.0000 (N17368) 173.1E-09 (N17406)     .1323 (N17436)    0.0000     

(N17468)   15.0000 (N17568) 423.5E-24 (N17574) 3.296E-09 (N17606)    0.0000     

(N17836)    0.0000 (N17866)  110.0000 (N17914)  220.0000 (N18076)  110.0000     

(N18162) 150.0E-09 (N18220) 413.0E-12 (N18246)    0.0000 (N18278)   15.0000     

(N18326)    0.0000 (N18546)  110.0000 (N89977)  110.0000 (N90065) 150.0E-09     

(N90119) 413.0E-12 (N90133)    0.0000 (N90165)   15.0000 (N90261) 507.9E-24     

(N90267) 3.296E-09 (N90303)    0.0000 (N90525)    0.0000 (N90555)  110.0000     

(N90603)  220.0000 (N90757)  110.0000 (N90843) 150.0E-09 (N90893) 413.0E-12     

(N90899)    0.0000 (N90931)   15.0000 (N90979)    0.0000 (N91199)  110.0000     

(N91629)  220.0000 (N92147)  110.0000 (X_M3.4)    0.0000 (X_M3.5)  110.0000     

(X_M3.6)  110.0000 (X_M3.7) 4.276E-09 (X_M3.8) 3.110E-12 (X_M3.9)  110.0000     

(X_M4.4)    0.0000 (X_M4.5)  110.0000 (X_M4.6)  110.0000 (X_M4.7)  110.0000     

(X_M4.8)  110.0000 (X_M4.9)  220.0000 (X_M9.4)    0.0000 (X_M9.5)  110.0000     

(X_M9.6)  110.0000 (X_M9.7) 4.276E-09 (X_M9.8) 3.110E-12 (X_M9.9)  110.0000     

(N851801)  110.0000                   (N852271) 2.582E-09                       

(N913111)  110.0000                   (N913351) 2.582E-09                       

(X_M10.4)    0.0000                   (X_M10.5)  110.0000                       

(X_M10.6)  110.0000                   (X_M10.7)  110.0000                       

(X_M10.8)  110.0000                   (X_M10.9)  220.0000                       

(X_M3.10)  110.0000                   (X_M3.11)  110.0000                       

(X_M4.10)  110.0000                   (X_M4.11)  110.0000                       

(X_M9.10)  110.0000                   (X_M9.11)  110.0000                       

(X_M10.10)  110.0000                  (X_M10.11)  110.0000                      

(X_C22.xinstcapacitor.3) 412.5E-12    (X_C22.xinstcapacitor.4) 412.5E-12        

(X_C46.xinstcapacitor.3) 412.5E-12    (X_C46.xinstcapacitor.4) 412.5E-12        

(X_C47.xinstcapacitor.3) 412.5E-12    (X_C47.xinstcapacitor.4) 412.5E-12        

(X_C22.xinstcapacitor.AWBDISCAP_DUMMY1)    1.0000                               

(X_C22.xinstcapacitor.AWBDISCAP_DUMMY2)    1.0000                               

(X_C22.xinstcapacitor.AWBDISCAP_DUMMY3)    1.0000                               

(X_C22.xinstcapacitor.AWBDISCAP_DUMMY4)    1.0000                               

(X_C46.xinstcapacitor.AWBDISCAP_DUMMY1)    1.0000                               

(X_C46.xinstcapacitor.AWBDISCAP_DUMMY2)    1.0000                               

(X_C46.xinstcapacitor.AWBDISCAP_DUMMY3)    1.0000                               

(X_C46.xinstcapacitor.AWBDISCAP_DUMMY4)    1.0000                               

(X_C47.xinstcapacitor.AWBDISCAP_DUMMY1)    1.0000                               

(X_C47.xinstcapacitor.AWBDISCAP_DUMMY2)    1.0000                               

(X_C47.xinstcapacitor.AWBDISCAP_DUMMY3)    1.0000                               

(X_C47.xinstcapacitor.AWBDISCAP_DUMMY4)    1.0000        




    VOLTAGE SOURCE CURRENTS
    NAME         CURRENT

    V_V7         1.731E-10
    V_V9         1.500E-10
    V_V6        -1.874E-10
    V_V8        -1.875E-10
    V_V10       -7.388E-04
    V_V22        1.500E-10
    V_V24        1.500E-10
    V_V21       -1.875E-10
    V_V25       -7.388E-04
    V_V23       -1.875E-10
    X_M3.VFI2    1.100E-10
    X_M3.VFI1    0.000E+00
    X_M4.VFI2    1.100E-10
    X_M4.VFI1    0.000E+00
    X_M10.VFI2   1.100E-10
    X_M10.VFI1   0.000E+00
    X_M9.VFI2    1.100E-10
    X_M9.VFI1    0.000E+00

    TOTAL POWER DISSIPATION   3.25E-01  WATTS



          JOB CONCLUDED

**** 04/22/18 17:50:01 ****** PSpice 16.5.0 (April 2011) ****** ID# 0 ********

 ** Profile: "SCHEMATIC1-Trans"  [ C:\WORK\Project\2_Plasma_LF_Generator\2_LF_Generator_Main\4_Review_Data\lf_gen-pspicefiles\schemat


 ****     JOB STATISTICS SUMMARY


******************************************************************************



  Total job time (using Solver 1)   =         .75
