
**** 04/15/18 11:52:29 ****** PSpice 16.5.0 (April 2011) ****** ID# 0 ********

 ** Profile: "SCHEMATIC1-LF_1stage"  [ E:\My_Work\20180114_Plasma_LF\2_LF_Generator_Main\4_Review_Data\lf_gen-pspicefiles\schematic1\


 ****     CIRCUIT DESCRIPTION


******************************************************************************




** Creating circuit file "LF_1stage.cir" 
** WARNING: THIS AUTOMATICALLY GENERATED FILE MAY BE OVERWRITTEN BY SUBSEQUENT SIMULATIONS

*Libraries: 
* Profile Libraries :
* Local Libraries :
* From [PSPICE NETLIST] section of C:\Cadence\SPB_16.5\tools\PSpice\PSpice.ini file:
.lib "nom.lib" 

*Analysis directives: 
.TRAN  0 100us 0 
.PROBE V(alias(*)) I(alias(*)) W(alias(*)) D(alias(*)) NOISE(alias(*)) 
.INC "..\SCHEMATIC1.net" 



**** INCLUDING SCHEMATIC1.net ****
* source LF_GEN
X_M3         N17266 N17574 0 IRFP460
X_TX6    N17266 N17866 N17848 0 SCHEMATIC1_TX6 
V_V7         N17606 0  
+PULSE 0V 15V 20usec 0 0 2usec 20usec
X_Q6         0 N17368 N17406 awb2n3906 PARAMS:                                 
+            
R_R24         N18326 N18162  1k TC=0,0 
R_R15         N17606 N17368  1k TC=0,0 
X_TX5    N18246 0 N17568 0 SCHEMATIC1_TX5 
C_C14         N18326 N18162  22n  TC=0,0 
R_R19         N17836 N17842  2M TC=0,0 
X_Q7         N18278 N18162 N18216 awb2n3904 PARAMS:                            
+                 
R_R22         0 N17866  150k TC=0,0 
R_R23         N17266 N18076  10k TC=0,0 
C_C13         0 N17866  2.2u  TC=0,0 
R_R18         N17842 N17848  2M TC=0,0 
V_V9         N18326 0  
+PULSE 0V 15V 30usec 0 0 2usec 20usec
R_R17         N17574 N17568  10 TC=0,0 
C_C12         N17866 N17914  2.2u  TC=0,0 
C_C11         0 N17468  47u  TC=0,0 
R_R20         0 N17836  10k TC=0,0 
X_Q8         0 N18162 N18216 awb2n3906 PARAMS:                                 
+            
V_V6         N17468 0 DC 15V  
X_M4         N17914 N18076 N17266 IRFP460
X_TX4    N17436 0 N18546 N17266 SCHEMATIC1_TX4 
C_C9         N17606 N17368  22n  TC=0,0 
V_V8         N18278 0 DC 15V  
V_V10         N17914 0 DC 220V  
R_R25         N18076 N18546  10 TC=0,0 
C_C16         0 N18278  47u  TC=0,0 
X_Q5         N17468 N17368 N17406 awb2n3904 PARAMS:                            
+                 
R_R16         0 N17574  10k TC=0,0 
R_R21         N17866 N17914  150k TC=0,0 
D_D7         N18076 N215871 D1N4740A 
D_D6         N17266 N215871 D1N4744A 
D_D8         0 N216631 D1N4744A 
D_D9         N17574 N216631 D1N4740A 
X_C21         N17406 N17436 awbcapacitor PARAMS: CAP=10U C1=10N C2=2 C3=111
+  ESL=100U RESL=10 ESR=11 RP=12M TC=100 TC1_ESR=10 TC2_ESR=10
X_C22         N18216 N18246 awbcapacitor PARAMS: CAP=10U C1=10N C2=2 C3=111
+  ESL=100U RESL=10 ESR=11 RP=12M TC=100 TC1_ESR=10 TC2_ESR=10
X_M6         N39386 N39548 N38758 IRFP460
C_C30         0 N39730  47u  TC=0,0 
R_R27         0 N39046  10k TC=0,0 
D_D11         N39548 N401081 D1N4740A 
X_TX8    N39698 0 N39040 0 SCHEMATIC1_TX8 
V_V14         N39778 0  
+PULSE 0V 15V 30usec 0 0 2usec 20usec
C_C26         0 N38944  47u  TC=0,0 
C_C28         0 N39338  2.2u  TC=0,0 
C_C25         N39078 N38844  22n  TC=0,0 
R_R31         0 N39308  10k TC=0,0 
V_V13         N39730 0 DC 15V  
V_V15         N39386 0 DC 220V  
R_R33         0 N39338  150k TC=0,0 
X_TX7    N38912 0 N39998 0 SCHEMATIC1_TX7 
D_D13         N39046 N401561 D1N4740A 
X_TX9    N38758 N39338 N39320 0 SCHEMATIC1_TX9 
X_Q9         N38944 N38844 N38898 awb2n3904 PARAMS:                            
+                 
X_Q10         0 N38844 N38898 awb2n3906 PARAMS:                                
+             
X_Q11         N39730 N39634 N38736 awb2n3904 PARAMS:                           
+                  
D_D10         0 N401081 D1N4744A 
R_R34         0 N39548  10k TC=0,0 
V_V11         N38944 0 DC 15V  
C_C29         N39778 N39634  22n  TC=0,0 
R_R30         N39308 N39314  2M TC=0,0 
R_R28         N39046 N39040  10 TC=0,0 
X_C24         N38736 N39698 awbcapacitor PARAMS: CAP=10U C1=10N C2=2 C3=111
+  ESL=100U RESL=10 ESR=11 RP=12M TC=100 TC1_ESR=10 TC2_ESR=10
R_R36         N39548 N39998  10 TC=0,0 
V_V12         N39078 0  
+PULSE 0V 15V 20usec 0 0 2usec 20usec
R_R35         N39778 N39634  1k TC=0,0 
C_C27         N39338 N39386  2.2u  TC=0,0 
D_D12         0 N401561 D1N4744A 
X_C23         N38898 N38912 awbcapacitor PARAMS: CAP=10U C1=10N C2=2 C3=111
+  ESL=100U RESL=10 ESR=11 RP=12M TC=100 TC1_ESR=10 TC2_ESR=10
R_R32         N39338 N39386  150k TC=0,0 
X_M5         N38758 N39046 0 IRFP460
R_R29         N39314 N39320  2M TC=0,0 
X_Q12         0 N39634 N38736 awb2n3906 PARAMS:                                
+             
R_R26         N39078 N38844  1k TC=0,0 

.subckt SCHEMATIC1_TX6 1 2 3 4  
K_TX6         L1_TX6 L2_TX6 1
L1_TX6         1 2 1000uH
L2_TX6         3 4 5000uH
.ends SCHEMATIC1_TX6

.subckt SCHEMATIC1_TX5 1 2 3 4  
K_TX5         L1_TX5 L2_TX5 1
L1_TX5         1 2 1000uH
L2_TX5         3 4 2000uH
.ends SCHEMATIC1_TX5

.subckt SCHEMATIC1_TX4 1 2 3 4  
K_TX4         L1_TX4 L2_TX4 1
L1_TX4         1 2 1000uH
L2_TX4         3 4 2000uH
.ends SCHEMATIC1_TX4

.subckt SCHEMATIC1_TX8 1 2 3 4  
K_TX8         L1_TX8 L2_TX8 1
L1_TX8         1 2 1000uH
L2_TX8         3 4 2000uH
.ends SCHEMATIC1_TX8

.subckt SCHEMATIC1_TX7 1 2 3 4  
K_TX7         L1_TX7 L2_TX7 1
L1_TX7         1 2 1000uH
L2_TX7         3 4 2000uH
.ends SCHEMATIC1_TX7

.subckt SCHEMATIC1_TX9 1 2 3 4  
K_TX9         L1_TX9 L2_TX9 1
L1_TX9         1 2 1000uH
L2_TX9         3 4 5000uH
.ends SCHEMATIC1_TX9

**** RESUMING LF_1stage.cir ****
.END

**** 04/15/18 11:52:29 ****** PSpice 16.5.0 (April 2011) ****** ID# 0 ********

 ** Profile: "SCHEMATIC1-LF_1stage"  [ E:\My_Work\20180114_Plasma_LF\2_LF_Generator_Main\4_Review_Data\lf_gen-pspicefiles\schematic1\


 ****     Diode MODEL PARAMETERS


******************************************************************************




               D1N4740A        D1N4744A        X_M3.MD         X_M3.MD1        
          IS    9.499996E-06    4.997600E-24   10.000000E-18    0            
           N    3.38339         1.6405           .70113        50            
         ISR   10.010000E-21    2.247333E-06                                 
          NR                    2.89714                                      
          BV   10.055          15.048         500                            
         IBV     .20695          .1296        250.000000E-06                 
          RS     .143217         .21797         9.080380E-03                 
          TT  605.620000E-09  605.000000E-09                                 
         CJO  350.000000E-12  260.000000E-12    6.161040E-09    5.000000E-09 
          VJ     .75             .46328         1.30742         1.83303      
           M     .22336          .2466           .9              .9          
          FC                                                   10.000000E-09 
          EG                                    1.00085                      
         XTI                                    1.00002                      


               X_M3.MD2        X_M3.MD3        X_M4.MD         X_M4.MD1        
          IS  100.000000E-12  100.000000E-12   10.000000E-18    0            
           N                                     .70113        50            
          BV                                  500                            
         IBV                                  250.000000E-06                 
          RS    3.000000E-06                    9.080380E-03                 
         CJO                                    6.161040E-09    5.000000E-09 
          VJ                                    1.30742         1.83303      
           M                                     .9              .9          
          FC                                                   10.000000E-09 
          EG                                    1.00085                      
         XTI                                    1.00002                      


               X_M4.MD2        X_M4.MD3        X_M6.MD         X_M6.MD1        
          IS  100.000000E-12  100.000000E-12   10.000000E-18    0            
           N                                     .70113        50            
          BV                                  500                            
         IBV                                  250.000000E-06                 
          RS    3.000000E-06                    9.080380E-03                 
         CJO                                    6.161040E-09    5.000000E-09 
          VJ                                    1.30742         1.83303      
           M                                     .9              .9          
          FC                                                   10.000000E-09 
          EG                                    1.00085                      
         XTI                                    1.00002                      


               X_M6.MD2        X_M6.MD3        X_M5.MD         X_M5.MD1        
          IS  100.000000E-12  100.000000E-12   10.000000E-18    0            
           N                                     .70113        50            
          BV                                  500                            
         IBV                                  250.000000E-06                 
          RS    3.000000E-06                    9.080380E-03                 
         CJO                                    6.161040E-09    5.000000E-09 
          VJ                                    1.30742         1.83303      
           M                                     .9              .9          
          FC                                                   10.000000E-09 
          EG                                    1.00085                      
         XTI                                    1.00002                      


               X_M5.MD2        X_M5.MD3        
          IS  100.000000E-12  100.000000E-12 
          RS    3.000000E-06                 


**** 04/15/18 11:52:29 ****** PSpice 16.5.0 (April 2011) ****** ID# 0 ********

 ** Profile: "SCHEMATIC1-LF_1stage"  [ E:\My_Work\20180114_Plasma_LF\2_LF_Generator_Main\4_Review_Data\lf_gen-pspicefiles\schematic1\


 ****     BJT MODEL PARAMETERS


******************************************************************************




               X_Q6.model7     X_Q7.model4     X_Q8.model7     X_Q5.model4     
               PNP             NPN             PNP             NPN             
       LEVEL    1               1               1               1            
          IS  218.880000E-15  172.800000E-18  218.880000E-15  172.800000E-18 
          EG                    1.206                           1.206        
          BF  200             254.395         200             254.395        
          NF    1.221            .85            1.221            .85         
         VAF   50              10              50              10            
         IKF     .15             .016374         .15             .016374     
         ISE    2.364000E-12    9.974460E-15    2.364000E-12    9.974460E-15 
          NE    2.155           1.20863         2.155           1.20863      
          BR    4.68             .1             4.68             .1          
          NR    1.221            .891964        1.221            .891964     
         VAR  500               7.74046       500               7.74046      
         IKR                     .163741                         .163741     
         ISC                    9.974460E-15                    9.974460E-15 
          NC    1               2.84343         1               2.84343      
         ISS    0               0               0               0            
          RB   12              28.3394         12              28.3394       
         RBM   12                .01           12                .01         
         IRB                     .01                             .01         
          RE     .1             1.339110E-03     .1             1.339110E-03 
          RC    1.5             2.08353         1.5             2.08353      
         CJE    6.250000E-12    4.566140E-12    6.250000E-12    4.566140E-12 
         VJE     .916            .4              .916            .4          
         MJE     .3898           .245712         .3898           .245712     
         CJC    6.600000E-12    3.724850E-12    6.600000E-12    3.724850E-12 
         VJC    1.67             .4             1.67             .4          
         MJC     .4065           .236002         .4065           .236002     
        XCJC     .5              .8              .5              .8          
         CJS    0               0               0               0            
         VJS     .7              .75             .7              .75         
         MJS     .5              .5              .5              .5          
          FC                     .519152                         .519152     
          TF  361.720000E-12  481.412000E-12  361.720000E-12  481.412000E-12 
         XTF   21                .9628         21                .9628       
         VTF    4.7             9.52193         4.7             9.52193      
         ITF     .26             .011333         .26             .011333     
          TR   19.920000E-09    1.303990E-06   19.920000E-09    1.303990E-06 
         XTB    1.7             1.20888         1.7             1.20888      
         XTI                    1.34879                         1.34879      
          KF    0               0               0               0            
          AF    1               1               1               1            
          CN    2.2             2.42            2.2             2.42         
           D     .52             .87             .52             .87         


               X_Q9.model4     X_Q10.model7    X_Q11.model4    X_Q12.model7    
               NPN             PNP             NPN             PNP             
       LEVEL    1               1               1               1            
          IS  172.800000E-18  218.880000E-15  172.800000E-18  218.880000E-15 
          EG    1.206                           1.206                        
          BF  254.395         200             254.395         200            
          NF     .85            1.221            .85            1.221        
         VAF   10              50              10              50            
         IKF     .016374         .15             .016374         .15         
         ISE    9.974460E-15    2.364000E-12    9.974460E-15    2.364000E-12 
          NE    1.20863         2.155           1.20863         2.155        
          BR     .1             4.68             .1             4.68         
          NR     .891964        1.221            .891964        1.221        
         VAR    7.74046       500               7.74046       500            
         IKR     .163741                         .163741                     
         ISC    9.974460E-15                    9.974460E-15                 
          NC    2.84343         1               2.84343         1            
         ISS    0               0               0               0            
          RB   28.3394         12              28.3394         12            
         RBM     .01           12                .01           12            
         IRB     .01                             .01                         
          RE    1.339110E-03     .1             1.339110E-03     .1          
          RC    2.08353         1.5             2.08353         1.5          
         CJE    4.566140E-12    6.250000E-12    4.566140E-12    6.250000E-12 
         VJE     .4              .916            .4              .916        
         MJE     .245712         .3898           .245712         .3898       
         CJC    3.724850E-12    6.600000E-12    3.724850E-12    6.600000E-12 
         VJC     .4             1.67             .4             1.67         
         MJC     .236002         .4065           .236002         .4065       
        XCJC     .8              .5              .8              .5          
         CJS    0               0               0               0            
         VJS     .75             .7              .75             .7          
         MJS     .5              .5              .5              .5          
          FC     .519152                         .519152                     
          TF  481.412000E-12  361.720000E-12  481.412000E-12  361.720000E-12 
         XTF     .9628         21                .9628         21            
         VTF    9.52193         4.7             9.52193         4.7          
         ITF     .011333         .26             .011333         .26         
          TR    1.303990E-06   19.920000E-09    1.303990E-06   19.920000E-09 
         XTB    1.20888         1.7             1.20888         1.7          
         XTI    1.34879                         1.34879                      
          KF    0               0               0               0            
          AF    1               1               1               1            
          CN    2.42            2.2             2.42            2.2          
           D     .87             .52             .87             .52         


**** 04/15/18 11:52:29 ****** PSpice 16.5.0 (April 2011) ****** ID# 0 ********

 ** Profile: "SCHEMATIC1-LF_1stage"  [ E:\My_Work\20180114_Plasma_LF\2_LF_Generator_Main\4_Review_Data\lf_gen-pspicefiles\schematic1\


 ****     MOSFET MODEL PARAMETERS


******************************************************************************




               X_M3.MM         X_M4.MM         X_M6.MM         X_M5.MM         
               NMOS            NMOS            NMOS            NMOS            
       LEVEL    1               1               1               1            
           L  100.000000E-06  100.000000E-06  100.000000E-06  100.000000E-06 
           W  100.000000E-06  100.000000E-06  100.000000E-06  100.000000E-06 
         VTO    3.854           3.854           3.854           3.854        
          KP   29.2045         29.2045         29.2045         29.2045       
       GAMMA    0               0               0               0            
         PHI     .6              .6              .6              .6          
      LAMBDA     .010185         .010185         .010185         .010185     
          IS    0               0               0               0            
          JS    0               0               0               0            
          PB     .8              .8              .8              .8          
        PBSW     .8              .8              .8              .8          
          CJ    0               0               0               0            
        CJSW    0               0               0               0            
        CGSO   42.055500E-06   42.055500E-06   42.055500E-06   42.055500E-06 
        CGDO   10.000000E-12   10.000000E-12   10.000000E-12   10.000000E-12 
        CGBO    0               0               0               0            
         TOX    0               0               0               0            
          XJ    0               0               0               0            
       UCRIT   10.000000E+03   10.000000E+03   10.000000E+03   10.000000E+03 
      DIOMOD    1               1               1               1            
         VFB    0               0               0               0            
        LETA    0               0               0               0            
        WETA    0               0               0               0            
          U0    0               0               0               0            
        TEMP    0               0               0               0            
         VDD    5               5               5               5            
       XPART    0               0               0               0            


**** 04/15/18 11:52:29 ****** PSpice 16.5.0 (April 2011) ****** ID# 0 ********

 ** Profile: "SCHEMATIC1-LF_1stage"  [ E:\My_Work\20180114_Plasma_LF\2_LF_Generator_Main\4_Review_Data\lf_gen-pspicefiles\schematic1\


 ****     INITIAL TRANSIENT SOLUTION       TEMPERATURE =   27.000 DEG C


******************************************************************************



 NODE   VOLTAGE     NODE   VOLTAGE     NODE   VOLTAGE     NODE   VOLTAGE


(N17266)  110.0000 (N17368) 150.0E-09 (N17406) 413.0E-12 (N17436)    0.0000     

(N17468)   15.0000 (N17568)-423.5E-24 (N17574) 3.296E-09 (N17606)    0.0000     

(N17836)    0.0000 (N17842)    0.0000 (N17848)    0.0000 (N17866)  110.0000     

(N17914)  220.0000 (N18076)  110.0000 (N18162) 150.0E-09 (N18216) 413.0E-12     

(N18246)    0.0000 (N18278)   15.0000 (N18326)    0.0000 (N18546)  110.0000     

(N38736) 413.0E-12 (N38758)  110.0000 (N38844) 150.0E-09 (N38898) 413.0E-12     

(N38912)    0.0000 (N38944)   15.0000 (N39040) 355.7E-24 (N39046) 3.296E-09     

(N39078)    0.0000 (N39308)    0.0000 (N39314)    0.0000 (N39320)    0.0000     

(N39338)  110.0000 (N39386)  220.0000 (N39548) 6.592E-09 (N39634) 150.0E-09     

(N39698)    0.0000 (N39730)   15.0000 (N39778)    0.0000 (N39998) 57.00E-24     

(X_M3.4)    0.0000 (X_M3.5)  110.0000 (X_M3.6)  110.0000 (X_M3.7) 4.276E-09     

(X_M3.8) 3.110E-12 (X_M3.9)  110.0000 (X_M4.4)    0.0000 (X_M4.5)  110.0000     

(X_M4.6)  110.0000 (X_M4.7)  110.0000 (X_M4.8)  110.0000 (X_M4.9)  220.0000     

(X_M5.4)    0.0000 (X_M5.5)  110.0000 (X_M5.6)  110.0000 (X_M5.7) 4.276E-09     

(X_M5.8) 3.110E-12 (X_M5.9)  110.0000 (X_M6.4)    0.0000 (X_M6.5)  220.0000     

(X_M6.6)  220.0000 (X_M6.7) 8.551E-09 (X_M6.8)  110.0000 (X_M6.9)  220.0000     

(N215871)  110.0000                   (N216631) 2.582E-09                       

(N401081) 5.164E-09                   (N401561) 2.582E-09                       

(X_M3.10)  110.0000                   (X_M3.11)  110.0000                       

(X_M4.10)  110.0000                   (X_M4.11)  110.0000                       

(X_M5.10)  110.0000                   (X_M5.11)  110.0000                       

(X_M6.10)  220.0000                   (X_M6.11)  220.0000                       

(X_C21.xinstcapacitor.3) 412.5E-12    (X_C21.xinstcapacitor.4) 412.5E-12        

(X_C22.xinstcapacitor.3) 412.5E-12    (X_C22.xinstcapacitor.4) 412.5E-12        

(X_C23.xinstcapacitor.3) 412.5E-12    (X_C23.xinstcapacitor.4) 412.5E-12        

(X_C24.xinstcapacitor.3) 412.5E-12    (X_C24.xinstcapacitor.4) 412.5E-12        

(X_C21.xinstcapacitor.AWBDISCAP_DUMMY1)    1.0000                               

(X_C21.xinstcapacitor.AWBDISCAP_DUMMY2)    1.0000                               

(X_C21.xinstcapacitor.AWBDISCAP_DUMMY3)    1.0000                               

(X_C21.xinstcapacitor.AWBDISCAP_DUMMY4)    1.0000                               

(X_C22.xinstcapacitor.AWBDISCAP_DUMMY1)    1.0000                               

(X_C22.xinstcapacitor.AWBDISCAP_DUMMY2)    1.0000                               

(X_C22.xinstcapacitor.AWBDISCAP_DUMMY3)    1.0000                               

(X_C22.xinstcapacitor.AWBDISCAP_DUMMY4)    1.0000                               

(X_C23.xinstcapacitor.AWBDISCAP_DUMMY1)    1.0000                               

(X_C23.xinstcapacitor.AWBDISCAP_DUMMY2)    1.0000                               

(X_C23.xinstcapacitor.AWBDISCAP_DUMMY3)    1.0000                               

(X_C23.xinstcapacitor.AWBDISCAP_DUMMY4)    1.0000                               

(X_C24.xinstcapacitor.AWBDISCAP_DUMMY1)    1.0000                               

(X_C24.xinstcapacitor.AWBDISCAP_DUMMY2)    1.0000                               

(X_C24.xinstcapacitor.AWBDISCAP_DUMMY3)    1.0000                               

(X_C24.xinstcapacitor.AWBDISCAP_DUMMY4)    1.0000        




    VOLTAGE SOURCE CURRENTS
    NAME         CURRENT

    V_V7         1.500E-10
    V_V9         1.500E-10
    V_V6        -1.875E-10
    V_V8        -1.875E-10
    V_V10       -7.388E-04
    V_V14        1.500E-10
    V_V13       -1.875E-10
    V_V15       -7.388E-04
    V_V11       -1.875E-10
    V_V12        1.500E-10
    X_M3.VFI2    1.100E-10
    X_M3.VFI1    0.000E+00
    X_M4.VFI2    1.100E-10
    X_M4.VFI1    0.000E+00
    X_M6.VFI2    2.200E-10
    X_M6.VFI1    0.000E+00
    X_M5.VFI2    1.100E-10
    X_M5.VFI1    0.000E+00

    TOTAL POWER DISSIPATION   3.25E-01  WATTS



          JOB CONCLUDED

**** 04/15/18 11:52:29 ****** PSpice 16.5.0 (April 2011) ****** ID# 0 ********

 ** Profile: "SCHEMATIC1-LF_1stage"  [ E:\My_Work\20180114_Plasma_LF\2_LF_Generator_Main\4_Review_Data\lf_gen-pspicefiles\schematic1\


 ****     JOB STATISTICS SUMMARY


******************************************************************************



  Total job time (using Solver 1)   =         .52
